[TITLE]
Rehabilitation of the Karegoan Redesign Scheme
[JUNCTIONS]
;ID	Elev	Demand	Pattern
1	434.0	0.0	1	;
2	434.0	0.0	1	;
3	434.0	0.0	1	;
4	434.0	0.0	1	;
5	420.0	33.4	1	;
6	419.0	17.066666666666666	1	;
7	243.0	16.155555555555555	1	;
8	380.0	20.42222222222222	1	;
9	354.0	46.43333333333333	1	;
10	202.0	11.777777777777779	1	;
11	384.0	38.12222222222222	1	;
12	393.0	41.93333333333333	1	;
13	192.0	46.144444444444446	1	;
14	345.0	18.711111111111112	1	;
15	350.0	23.033333333333335	1	;
16	350.0	36.733333333333334	1	;
17	350.0	18.988888888888887	1	;
18	460.0	32.855555555555554	1	;
19	422.0	25.344444444444445	1	;
20	426.0	24.944444444444443	1	;
21	434.0	0.0	1	;
22	434.0	0.0	1	;
23	380.0	0.0	1	;
24	380.0	0.0	1	;
25	202.0	0.0	1	;
26	380.0	0.0	1	;
27	434.0	85.78888888888889	1	;
28	0.0	0.0	1	;
29	434.0	0.0	1	;
30	434.0	0.0	1	;
31	434.0	0.0	1	;
32	434.0	0.0	1	;

[RESERVOIRS]
;ID		Head	Pattern
33	640.0	1	;

[TANKS]
;ID	Elevation	InitLevel	MinLevel	MaxLevel	Diameter	MinVol	VolCurve
tank1	434.0	10.0	10.0	18.0	1388.888888888889	0		;
tank2	434.0	10.0	10.0	18.0	2777.777777777778	0		;
tank3	434.0	10.0	10.0	18.0	4166.666666666667	0		;
tank4	434.0	10.0	10.0	18.0	5555.555555555556	0		;
tank5	420.0	10.0	10.0	18.0	8333.333333333334	0		;
tank6	419.0	10.0	10.0	18.0	11111.111111111111	0		;
tank7	243.0	10.0	10.0	18.0	16666.666666666668	0		;

[PIPES]
;ID	Node1	Node2	Length	Diameter	Roughness	MinorLoss	Status;
1	33	27	9316.0	110.0	140.0	0	Open	;
33	27	tank5	3130.0	110.0	140.0	0	Open	;
64	tank5	3	3130.0	110.0	0	0	Open	;
2	27	3	3130.0	110.0	140.0	0	Open	;
3	3	2	2592.0	110.0	140.0	0	Open	;
35	2	tank2	577.0	63.0	140.0	0	Open	;
66	tank2	19	577.0	63.0	0	0	Open	;
4	2	19	577.0	63.0	140.0	0	Open	;
36	2	tank2	950.0	110.0	140.0	0	Open	;
67	tank2	1	950.0	110.0	0	0	Open	;
5	2	1	950.0	110.0	140.0	0	Open	;
6	3	20	284.0	110.0	140.0	0	Open	;
38	27	tank5	626.0	63.0	140.0	0	Open	;
69	tank5	21	626.0	63.0	0	0	Open	;
7	27	21	626.0	63.0	140.0	0	Open	;
8	21	6	2430.0	63.0	140.0	0	Open	;
40	27	tank5	3747.0	63.0	140.0	0	Open	;
71	tank5	7	3747.0	63.0	0	0	Open	;
9	27	7	3747.0	63.0	140.0	0	Open	;
41	7	tank4	2675.0	63.0	140.0	0	Open	;
72	tank4	10	2675.0	63.0	0	0	Open	;
10	7	10	2675.0	63.0	140.0	0	Open	;
11	10	25	2500.0	63.0	140.0	0	Open	;
12	25	13	3181.0	63.0	140.0	0	Open	;
44	27	tank5	1000.0	63.0	140.0	0	Open	;
75	tank5	4	1000.0	63.0	0	0	Open	;
13	27	4	1000.0	63.0	140.0	0	Open	;
45	4	tank3	4700.0	63.0	140.0	0	Open	;
76	tank3	22	4700.0	63.0	0	0	Open	;
14	4	22	4700.0	63.0	140.0	0	Open	;
15	22	9	788.0	63.0	140.0	0	Open	;
47	4	tank3	5568.0	63.0	140.0	0	Open	;
78	tank3	8	5568.0	63.0	0	0	Open	;
16	4	8	5568.0	63.0	140.0	0	Open	;
17	8	24	2010.0	63.0	140.0	0	Open	;
18	24	26	1453.0	63.0	140.0	0	Open	;
19	26	12	2000.0	63.0	140.0	0	Open	;
51	1	tank1	3160.0	63.0	140.0	0	Open	;
82	tank1	5	3160.0	63.0	0	0	Open	;
20	1	5	3160.0	63.0	140.0	0	Open	;
52	1	tank1	1460.0	110.0	140.0	0	Open	;
83	tank1	29	1460.0	110.0	0	0	Open	;
21	1	29	1460.0	110.0	140.0	0	Open	;
22	29	30	1391.0	110.0	140.0	0	Open	;
54	30	tank6	1110.0	63.0	140.0	0	Open	;
85	tank6	18	1110.0	63.0	0	0	Open	;
23	30	18	1110.0	63.0	140.0	0	Open	;
55	30	tank6	600.0	110.0	140.0	0	Open	;
86	tank6	32	600.0	110.0	0	0	Open	;
24	30	32	600.0	110.0	140.0	0	Open	;
25	32	14	2000.0	110.0	140.0	0	Open	;
26	29	31	2100.0	110.0	140.0	0	Open	;
58	31	tank7	250.0	110.0	140.0	0	Open	;
89	tank7	15	250.0	110.0	0	0	Open	;
27	31	15	250.0	110.0	140.0	0	Open	;
59	31	tank7	2000.0	110.0	140.0	0	Open	;
90	tank7	16	2000.0	110.0	0	0	Open	;
28	31	16	2000.0	110.0	140.0	0	Open	;
60	31	tank7	400.0	110.0	140.0	0	Open	;
91	tank7	17	400.0	110.0	0	0	Open	;
29	31	17	400.0	110.0	140.0	0	Open	;
30	8	23	2000.0	63.0	140.0	0	Open	;
31	23	11	1800.0	63.0	140.0	0	Open	;

[PUMPS]
;ID	Node1	Node2	Parameters

[PATTERNS]
;ID	Multipliers
;General Default Demand Pattern
1	0.7	0.6	1.2	1.3	1.2	1.1	1.0	0.9

[CURVES]
;ID	X-Value	Y-Value;

[CONTROLS]
Link 5 CLOSED AT TIME 03:00:00
Link 36 OPEN AT TIME 03:00:00
Link 5 CLOSED AT TIME 06:00:00
Link 36 OPEN AT TIME 06:00:00
Link 5 CLOSED AT TIME 09:00:00
Link 36 OPEN AT TIME 09:00:00
Link 5 CLOSED AT TIME 12:00:00
Link 36 OPEN AT TIME 12:00:00
Link 5 CLOSED AT TIME 15:00:00
Link 36 OPEN AT TIME 15:00:00
Link 5 CLOSED AT TIME 18:00:00
Link 36 OPEN AT TIME 18:00:00
Link 5 CLOSED AT TIME 21:00:00
Link 36 OPEN AT TIME 21:00:00
Link 5 CLOSED AT TIME 00:00:00
Link 36 OPEN AT TIME 00:00:00
Link 3 CLOSED AT TIME 03:00:00
Link 34 OPEN AT TIME 03:00:00
Link 3 CLOSED AT TIME 06:00:00
Link 34 OPEN AT TIME 06:00:00
Link 3 CLOSED AT TIME 09:00:00
Link 34 OPEN AT TIME 09:00:00
Link 3 CLOSED AT TIME 12:00:00
Link 34 OPEN AT TIME 12:00:00
Link 3 CLOSED AT TIME 15:00:00
Link 34 OPEN AT TIME 15:00:00
Link 3 CLOSED AT TIME 18:00:00
Link 34 OPEN AT TIME 18:00:00
Link 3 CLOSED AT TIME 21:00:00
Link 34 OPEN AT TIME 21:00:00
Link 3 CLOSED AT TIME 00:00:00
Link 34 OPEN AT TIME 00:00:00
Link 13 OPEN AT TIME 03:00:00
Link 44 CLOSED AT TIME 03:00:00
Link 13 OPEN AT TIME 06:00:00
Link 44 CLOSED AT TIME 06:00:00
Link 13 OPEN AT TIME 09:00:00
Link 44 CLOSED AT TIME 09:00:00
Link 13 OPEN AT TIME 12:00:00
Link 44 CLOSED AT TIME 12:00:00
Link 13 OPEN AT TIME 15:00:00
Link 44 CLOSED AT TIME 15:00:00
Link 13 OPEN AT TIME 18:00:00
Link 44 CLOSED AT TIME 18:00:00
Link 13 OPEN AT TIME 21:00:00
Link 44 CLOSED AT TIME 21:00:00
Link 13 OPEN AT TIME 00:00:00
Link 44 CLOSED AT TIME 00:00:00
Link 9 OPEN AT TIME 03:00:00
Link 40 CLOSED AT TIME 03:00:00
Link 9 OPEN AT TIME 06:00:00
Link 40 CLOSED AT TIME 06:00:00
Link 9 CLOSED AT TIME 09:00:00
Link 40 OPEN AT TIME 09:00:00
Link 9 CLOSED AT TIME 12:00:00
Link 40 OPEN AT TIME 12:00:00
Link 9 CLOSED AT TIME 15:00:00
Link 40 OPEN AT TIME 15:00:00
Link 9 OPEN AT TIME 18:00:00
Link 40 CLOSED AT TIME 18:00:00
Link 9 CLOSED AT TIME 21:00:00
Link 40 OPEN AT TIME 21:00:00
Link 9 OPEN AT TIME 00:00:00
Link 40 CLOSED AT TIME 00:00:00
Link 1 CLOSED AT TIME 03:00:00
Link 32 OPEN AT TIME 03:00:00
Link 1 CLOSED AT TIME 06:00:00
Link 32 OPEN AT TIME 06:00:00
Link 1 CLOSED AT TIME 09:00:00
Link 32 OPEN AT TIME 09:00:00
Link 1 CLOSED AT TIME 12:00:00
Link 32 OPEN AT TIME 12:00:00
Link 1 CLOSED AT TIME 15:00:00
Link 32 OPEN AT TIME 15:00:00
Link 1 CLOSED AT TIME 18:00:00
Link 32 OPEN AT TIME 18:00:00
Link 1 CLOSED AT TIME 21:00:00
Link 32 OPEN AT TIME 21:00:00
Link 1 CLOSED AT TIME 00:00:00
Link 32 OPEN AT TIME 00:00:00
Link 22 OPEN AT TIME 03:00:00
Link 53 CLOSED AT TIME 03:00:00
Link 22 CLOSED AT TIME 06:00:00
Link 53 OPEN AT TIME 06:00:00
Link 22 OPEN AT TIME 09:00:00
Link 53 CLOSED AT TIME 09:00:00
Link 22 OPEN AT TIME 12:00:00
Link 53 CLOSED AT TIME 12:00:00
Link 22 CLOSED AT TIME 15:00:00
Link 53 OPEN AT TIME 15:00:00
Link 22 OPEN AT TIME 18:00:00
Link 53 CLOSED AT TIME 18:00:00
Link 22 OPEN AT TIME 21:00:00
Link 53 CLOSED AT TIME 21:00:00
Link 22 CLOSED AT TIME 00:00:00
Link 53 OPEN AT TIME 00:00:00
Link 26 OPEN AT TIME 03:00:00
Link 57 CLOSED AT TIME 03:00:00
Link 26 OPEN AT TIME 06:00:00
Link 57 CLOSED AT TIME 06:00:00
Link 26 OPEN AT TIME 09:00:00
Link 57 CLOSED AT TIME 09:00:00
Link 26 OPEN AT TIME 12:00:00
Link 57 CLOSED AT TIME 12:00:00
Link 26 OPEN AT TIME 15:00:00
Link 57 CLOSED AT TIME 15:00:00
Link 26 OPEN AT TIME 18:00:00
Link 57 CLOSED AT TIME 18:00:00
Link 26 OPEN AT TIME 21:00:00
Link 57 CLOSED AT TIME 21:00:00
Link 26 OPEN AT TIME 00:00:00
Link 57 CLOSED AT TIME 00:00:00

[ENERGY]
Global Efficiency	7000.0
Global Price	6.5

[TIMES]
Duration	24:00
Hydraulic Timestep	03:00:00
Quality Timestep	03:00:00
Pattern Timestep	03:00:00
Pattern Start	0:00
Report Timestep	03:00:00
Report Start	0:00

[REPORT]
Status	Yes
Summary	No
Page	0

[COORDINATES]
;Node	X-Coord	Y-Coord
1	584.7272727272727	289.33333333333337
2	566.4545454545455	361.6666666666667
3	548.1818181818181	289.33333333333337
4	529.9090909090909	397.8333333333333
5	511.6363636363636	308.0
6	493.3636363636364	325.8888888888889
7	475.09090909090907	185.14285714285714
8	456.8181818181818	253.33333333333337
9	438.54545454545456	327.77777777777777
10	420.27272727272725	181.8
11	402.0	279.27272727272725
12	383.72727272727275	382.0833333333333
13	365.45454545454544	177.23076923076923
14	347.1818181818182	287.5
15	328.90909090909093	326.6666666666667
16	310.6363636363636	313.5416666666667
17	292.3636363636364	322.54901960784315
18	274.09090909090907	434.44444444444446
19	255.8181818181818	392.3859649122807
20	237.54545454545453	376.3
21	219.27272727272728	365.11111111111114
22	201.0	414.2727272727273
23	182.72727272727272	297.3913043478261
24	164.45454545454547	263.88888888888886
25	146.1818181818182	161.60000000000002
26	127.9090909090909	287.4358974358974
27	109.63636363636364	412.5679012345679
28	91.36363636363636	0.0
29	73.0909090909091	329.2413793103448
30	54.81818181818182	342.3777777777778
31	36.54545454545455	298.6666666666667
32	18.272727272727273	298.375
33	0.0	572.5454545454545
tank1	584.7272727272727	284.33333333333337
tank2	566.4545454545455	361.6666666666667
tank3	543.1818181818181	337.55555555555554
tank4	529.9090909090909	289.33333333333337
tank5	511.6363636363636	275.00000000000006
tank6	488.3636363636364	325.8888888888889
tank7	470.09090909090907	157.00000000000003
