[TITLE]
Optimal hydralic component allocation for Karegaon Redesign scheme
[JUNCTIONS]
;ID	Elev	Demand	Pattern
1	434.0	0.0	1	;
2	434.0	0.0	1	;
3	434.0	0.0	1	;
4	434.0	0.0	1	;
5	420.0	33.4	1	;
6	419.0	17.066666666666666	1	;
7	243.0	16.155555555555555	1	;
8	380.0	20.42222222222222	1	;
9	354.0	46.43333333333333	1	;
10	202.0	11.777777777777779	1	;
11	384.0	38.12222222222222	1	;
12	393.0	41.93333333333333	1	;
13	192.0	46.144444444444446	1	;
14	345.0	18.711111111111112	1	;
15	350.0	23.033333333333335	1	;
16	350.0	36.733333333333334	1	;
17	350.0	18.988888888888887	1	;
18	460.0	32.855555555555554	1	;
19	422.0	25.344444444444445	1	;
20	426.0	24.944444444444443	1	;
21	434.0	0.0	1	;
22	434.0	0.0	1	;
23	380.0	0.0	1	;
24	380.0	0.0	1	;
25	202.0	0.0	1	;
26	380.0	0.0	1	;
27	434.0	85.78888888888889	1	;
28	0.0	0.0	1	;
29	434.0	0.0	1	;
30	434.0	0.0	1	;
31	434.0	0.0	1	;
32	434.0	0.0	1	;

[RESERVOIRS]
;ID		Head	Pattern
33	640.0	1	;

[TANKS]
;ID	Elevation	InitLevel	MinLevel	MaxLevel	Diameter	MinVol	VolCurve
tank1	434.0	10.0	18.0	18.0	1388.888888888889	0		;
tank2	434.0	10.0	18.0	18.0	2777.777777777778	0		;
tank3	434.0	10.0	18.0	18.0	4166.666666666667	0		;
tank4	434.0	10.0	18.0	18.0	5555.555555555556	0		;

[PIPES]
;ID	Node1	Node2	Length	Diameter	Roughness	MinorLoss	Status;
1	33	27	9316.0	140.0	0	Open	;
2	27	3	3130.0	140.0	0	Open	;
3	3	2	2592.0	140.0	0	Open	;
4	2	tank1	139.73302703908877	140.0	0	Open	;
35	tank1	19	139.73302703908877	0	0	Open	;
4	2	tank1	437.26697296091123	140.0	0	Open	;
35	tank1	19	437.26697296091123	0	0	Open	;
5	2	tank1	950.0	140.0	0	Open	;
36	tank1	1	950.0	0	0	Open	;
6	3	20	284.0	140.0	0	Open	;
7	27	21	625.9999999999999	140.0	0	Open	;
7	27	21	1.205718957348937e-13	140.0	0	Open	;
8	21	6	620.137020787341	140.0	0	Open	;
8	21	6	1809.862979212659	140.0	0	Open	;
9	27	7	3747.0	140.0	0	Open	;
10	7	10	2675.0	140.0	0	Open	;
11	10	25	826.0118535480005	140.0	0	Open	;
11	10	25	1673.9881464519995	140.0	0	Open	;
12	25	tank3	1726.5047422108862	140.0	0	Open	;
43	tank3	13	1726.5047422108862	0	0	Open	;
12	25	tank3	1454.495257789113	140.0	0	Open	;
43	tank3	13	1454.495257789113	0	0	Open	;
13	27	4	3.410605131648481e-13	140.0	0	Open	;
13	27	4	1000.0000000000002	140.0	0	Open	;
14	4	tank2	1970.43479429449	140.0	0	Open	;
45	tank2	22	1970.43479429449	0	0	Open	;
14	4	tank2	2729.5652057055117	140.0	0	Open	;
45	tank2	22	2729.5652057055117	0	0	Open	;
15	22	9	455.89200402299815	140.0	0	Open	;
15	22	9	332.10799597700185	140.0	0	Open	;
16	4	tank2	5568.0	140.0	0	Open	;
47	tank2	8	5568.0	0	0	Open	;
17	8	24	3.410605131648481e-13	140.0	0	Open	;
17	8	24	797.5305977353543	140.0	0	Open	;
17	8	24	1212.4694022646454	140.0	0	Open	;
18	24	26	1453.0	140.0	0	Open	;
19	26	12	6.821210263296962e-13	140.0	0	Open	;
19	26	12	2000.0000000000007	140.0	0	Open	;
20	1	5	542.2062500559382	140.0	0	Open	;
20	1	5	2617.793749944062	140.0	0	Open	;
21	1	29	1460.0	140.0	0	Open	;
22	29	30	1391.0	140.0	0	Open	;
23	30	18	1110.0	140.0	0	Open	;
24	30	32	600.0	140.0	0	Open	;
25	32	14	2000.0	140.0	0	Open	;
26	29	31	2100.0	140.0	0	Open	;
27	31	tank4	250.0	140.0	0	Open	;
58	tank4	15	250.0	0	0	Open	;
28	31	tank4	2000.0	140.0	0	Open	;
59	tank4	16	2000.0	0	0	Open	;
29	31	tank4	400.0	140.0	0	Open	;
60	tank4	17	400.0	0	0	Open	;
30	8	23	727.6730817166926	140.0	0	Open	;
30	8	23	1272.3269182833074	140.0	0	Open	;
31	23	11	1800.0	140.0	0	Open	;

[PUMPS]
;ID	Node1	Node2	Parameters
1	33	27	Pump1	;
2	27	3	Pump2	;
3	3	2	Pump3	;
5	2	tank1	Pump5	;
7	27	21	Pump7	;
9	27	7	Pump9	;
18	24	26	Pump18	;
21	1	29	Pump21	;
23	30	18	Pump23	;
26	29	31	Pump26	;
31	23	11	Pump31	;

[PATTERNS]
;ID	Multipliers
;General Default Demand Pattern
1	1.34	1.94	1.46	1.44	.76	.92

[CURVES]
;ID	X-Value	Y-Value;

[CONTROLS]

[ENERGY]
Global Efficiency	7000.0
Global Price	6.5

[TIMES]
Duration	24:00
Hydraulic Timestep	3:00
Quality Timestep	3:00
Pattern Timestep	3:00
Pattern Start	0:00
Report Timestep	3:00
Report Start	0:00

[REPORT]
Status	Yes
Summary	No
Page	0

[COORDINATES]
;Node	X-Coord	Y-Coord
1	584.7272727272727	289.33333333333337
2	566.4545454545455	361.6666666666667
3	548.1818181818181	289.33333333333337
4	529.9090909090909	325.5
5	511.6363636363636	392.0
6	493.3636363636364	279.33333333333337
7	475.09090909090907	196.71428571428572
8	456.8181818181818	348.3333333333333
9	438.54545454545456	236.00000000000003
10	420.27272727272725	195.26666666666668
11	402.0	302.5454545454545
12	383.72727272727275	349.3333333333333
13	365.45454545454544	128.0
14	347.1818181818182	246.42857142857144
15	328.90909090909093	233.33333333333337
16	310.6363636363636	262.5
17	292.3636363636364	267.6470588235294
18	274.09090909090907	451.48148148148147
19	255.8181818181818	318.35087719298247
20	237.54545454545453	319.5
21	219.27272727272728	372.0
22	201.0	414.2727272727273
23	182.72727272727272	374.49275362318843
24	164.45454545454547	285.0
25	146.1818181818182	153.52
26	127.9090909090909	375.12820512820514
27	109.63636363636364	412.5679012345679
28	91.36363636363636	0.0
29	73.0909090909091	414.0459770114943
30	54.81818181818182	308.6222222222222
31	36.54545454545455	340.66666666666663
32	18.272727272727273	411.3958333333333
33	0.0	444.6363636363636
tank1	584.7272727272727	284.33333333333337
tank2	561.4545454545455	289.33333333333337
tank3	548.1818181818181	385.77777777777777
tank4	529.9090909090909	397.8333333333333
